        33         8       5000.0000    
Output from wrfnc2arl: WRF hybrid vertical coordinate parameters
First line contains: nfull, npar, ptop (Pa)
wrfout global attribute TITLE:  OUTPUT FROM WRF V4.1.2 MODEL
wrfout global attribute HYBRID_OPT:          2
Line following the ENDHEADER line contains the names of the npar parameters
ENDHEADER
 C1H C2H C3H C4H C1F C2F C3F C4F
    1.0134526       -1278.0017       0.99686575        3.9523840        1.0000000        0.0000000        1.0000000        0.0000000    
    1.0434980       -4132.3140       0.98962849        24.150312        1.0302663       -2875.2971       0.99373156        7.9047680    
    1.0806210       -7658.9956       0.98015666        78.453125        1.0642240       -6101.2803       0.98552543        40.401520    
    1.1256818       -11939.767       0.96777678        190.86957        1.1056870       -10040.268       0.97478789        116.50473    
    1.1793981       -17042.816       0.95164627        397.01074        1.1554308       -14765.926       0.96076566        265.23441    
    1.2418776       -22978.367       0.93074811        746.73444        1.2138196       -20312.863       0.94252688        528.79272    
    1.3122536       -29664.092       0.90392268        1304.8076        1.2803905       -26637.098       0.91896933        964.67615    
    1.3884438       -36902.164       0.86995924        2147.7188        1.3536270       -33594.562       0.88887596        1644.9506    
    1.4666293       -44329.781       0.82777119        3353.8809        1.4305104       -40898.488       0.85104245        2650.4924    
    1.5414753       -51440.152       0.77665293        4986.5439        1.5064765       -48115.270       0.80449992        4057.2693    
    1.6062752       -57596.145       0.71657711        7071.4434        1.5755728       -54679.422       0.74880594        5915.8184    
    1.6538459       -62115.359       0.64844024        9575.7148        1.6310005       -59945.051       0.68434829        8227.0742    
    1.6775831       -64370.395       0.57414073        12397.468        1.6660260       -63272.469       0.61253226        10924.350    
    1.6725942       -63896.449       0.49623269        15380.192        1.6750476       -64129.527       0.53574920        13870.586    
    1.6357160       -60393.016       0.41707212        18353.518        1.6539195       -62122.348       0.45671618        16889.805    
    1.5647415       -53650.441       0.33879423        21141.879        1.5999007       -56990.570       0.37742803        19817.238    
    1.4583166       -43540.074       0.26376075        23553.281        1.5112389       -48567.699       0.30016044        22466.520    
    1.3161987       -30038.877       0.19442856        25391.646        1.3871715       -36781.293       0.22736107        24640.045    
    1.1394112       -13244.065       0.13318144        26472.365        1.2281080       -21670.264       0.16149604        26143.248    
   0.93038130        6613.7769       0.82137547E-01    26639.908        1.0357873       -3399.7976       0.10486684        26801.484    
   0.69304675        29160.559       0.42949136E-01    25785.801       0.81339145        17727.812       0.59408259E-01    26478.334    
   0.43273899        53889.793       0.16622033E-01    23864.391       0.56553602        41274.078       0.26490012E-01    25093.270    
   0.15607592        80172.781       0.33827377E-02    20903.742       0.29815546        66675.234       0.67540524E-02    22635.512    
   0.28334727E-03    94973.078       0.57116258E-05    17257.533       0.80871008E-01    87317.258       0.11423252E-04    19171.971    
    0.0000000        95000.000        0.0000000        13706.601       0.15278280E-03    94985.484        0.0000000        15343.097    
    0.0000000        95000.000        0.0000000        10696.902        0.0000000        95000.000        0.0000000        12070.104    
    0.0000000        95000.000        0.0000000        8171.4336        0.0000000        95000.000        0.0000000        9323.7012    
    0.0000000        95000.000        0.0000000        6052.2876        0.0000000        95000.000        0.0000000        7019.1665    
    0.0000000        95000.000        0.0000000        4274.0908        0.0000000        95000.000        0.0000000        5085.4082    
    0.0000000        95000.000        0.0000000        2781.9868        0.0000000        95000.000        0.0000000        3462.7725    
    0.0000000        95000.000        0.0000000        1529.9463        0.0000000        95000.000        0.0000000        2101.2009    
    0.0000000        95000.000        0.0000000        479.34595        0.0000000        95000.000        0.0000000        958.69189    
    0.0000000        0.0000000        0.0000000        0.0000000        0.0000000        95000.000        0.0000000        0.0000000    
